13

O          1.67910       -1.03905        0.21484
C          2.25766        0.02870        0.06437
O          2.27840        0.67475       -1.12505
C          3.00410        0.77505        1.18317
H          2.64915        1.81105        1.20024
N          2.69987        0.17261        2.49702
C          4.50703        0.72609        0.94519
H          2.74887        1.52969       -1.10793
H          2.95537       -0.81878        2.45599
H          1.68278        0.14606        2.60788
H          4.87178       -0.30639        0.89455
H          5.05029        1.24220        1.74435
H          4.77080        1.20984       -0.00138
