16

O          5.47120       -0.10983        2.94132
C          4.71555        0.90573        2.48742
C          3.24991        0.57520        2.47383
C          2.60499        1.13335        1.20960
H          2.93046        2.15318        0.97848
N          1.10809        1.14420        1.33439
C          2.97577        0.21991        0.02767
O          1.90012       -0.49031       -0.40416
O          4.09216        0.10020       -0.44562
O          5.21303        1.97896        2.19138
H          6.39269        0.21876        2.87189
H          2.81660        1.01751        3.37835
H          3.11707       -0.51190        2.53224
H          0.74984        1.82102        0.64883
H          0.86686        1.56539        2.23706
H          1.14661       -0.22559        0.18096
