14

S          5.91941        1.88607        1.94258
C          5.11803        1.01410        0.55372
C          3.62208        0.79587        0.81068
H          3.09082        1.75119        0.89212
N          3.35126       -0.00007        2.05431
C          3.04397        0.03266       -0.38667
O          2.62295       -1.20817       -0.02711
O          2.98992        0.45784       -1.52880
H          7.14710        1.93196        1.40226
H          5.63365        0.05830        0.40570
H          5.26850        1.60821       -0.35432
H          2.44144        0.30226        2.42062
H          4.01830        0.33287        2.76316
H          2.81389       -1.28630        0.94273
