10

O          0.88603       -0.49544        0.53108
C          1.95971        0.01116        0.25023
O          2.39486        0.19814       -1.02349
C          2.96876        0.54667        1.26404
N          4.26624        0.79686        0.58070
H          3.27832        0.63790       -0.94165
H          3.10982       -0.18384        2.06478
H          2.58349        1.48761        1.66603
H          4.75911       -0.10070        0.51134
H          4.84775        1.34932        1.21779
