22

O          2.03813       -1.31337       -1.11641
C          2.38510       -2.06716       -0.21898
O          1.89765       -3.32681       -0.11090
C          3.40341       -1.69994        0.87959
H          2.96022       -0.84712        1.40958
N          3.56748       -2.77107        1.88255
C          4.75187       -1.25752        0.25255
H          4.53099       -0.45810       -0.46891
C          5.66847       -0.65034        1.32376
C          5.45477       -2.39535       -0.52289
C          6.71925       -1.94914       -1.24614
H          2.30038       -3.77199        0.65673
H          4.05982       -3.59448        1.55161
H          2.72524       -2.96768        2.41628
H          6.04840       -1.41436        2.00964
H          5.13354        0.10215        1.91309
H          6.52770       -0.14777        0.86867
H          4.76682       -2.80315       -1.27258
H          5.71549       -3.21932        0.15019
H          6.52746       -1.07690       -1.87880
H          7.08997       -2.75717       -1.88544
H          7.51665       -1.69936       -0.53953
