17

O          4.54023        1.21906       -0.14354
C          4.49435        0.47731        0.82618
C          3.20904       -0.09266        1.43828
H          2.66496       -0.63390        0.65682
C          2.36320        1.00839        2.06796
C          2.48983        0.77692        3.56275
C          2.67126       -0.72181        3.65932
N          3.57855       -1.03098        2.54781
O          5.59611        0.07017        1.50892
H          1.31513        0.88007        1.77091
H          2.67165        2.02267        1.79580
H          3.37330        1.29766        3.95186
H          1.61262        1.13023        4.11229
H          3.09873       -1.02653        4.61841
H          1.71427       -1.23863        3.52093
H          3.41090       -1.99315        2.23902
H          5.25366       -0.49791        2.24503
