17

N          3.27862        1.06452       -0.19604
C          2.55353       -0.24263        0.01922
H          2.86293       -0.62735        0.99704
C          2.99977       -1.21437       -1.07752
O          3.74445       -0.58149       -2.02234
O          2.72196       -2.40281       -1.12901
C          1.03026       -0.01164       -0.03925
H          0.72107        0.24235       -1.06049
O          0.72057        1.12104        0.79470
C          0.22471       -1.20680        0.45591
H          4.10588        1.05480        0.40947
H          2.66912        1.77189        0.24438
H          3.80407        0.36200       -1.71883
H         -0.24176        1.26363        0.73950
H          0.33888       -2.07442       -0.19881
H         -0.84074       -0.95698        0.50439
H          0.52678       -1.48886        1.47013
